LTspice 24.0.12 for Windows
Circuit: * D:\Sunny Files\academics\2nd Year\Courses\EE226 - Analog Electronic Circuits\Lab\LTspice\passive filter.asc
Start Time: Sun Nov 10 18:27:18 2024
solver = Normal
Maximum thread count: 8
tnom = 27
temp = 27
method = modified trap
.OP point found by inspection.
Total elapsed time: 0.175 seconds.

